[General]
seed-set = ${0}
ned-path = /home/geo/inet4/src/inet
result-dir = /home/geo/informationpropagation/simulations/results
sim-time-limit = 24h
simtime-resolution = 1s
**.sentMessage:vector.vector-recording = false
**.sentMessage:histogram.scalar-recording = false
**.receivedMessage:vector.vector-recording = false
**.receivedMessage:histogram.scalar-recording = false
**.infectionTime:vector.vector-recording = false
**.infectionTime:histogram.scalar-recording = false

[Config BroadcastInfectionAppTest]
network = HelloTest
**.app.typename = "BroadcastInfectionApp"
**.app.sentInterval = 10s
**.app.recoveryInterval = 60s
**.statusReportInterval = 1s
**.recoveryProbability = 0.1
**.infectionProbability = 0.5
**.app.packetSize = 500B
**.app.initialInfectionProbability = 0.9
**.net.networkProtocol = "ProbabilisticBroadcast"
**.net.dp.typename = "HelloProtocol"
**.net.dp.broadcastDelay = 2s
**.net.dp.discoveryTime = 4s
**.net.dp.maxAttemptNumber = 3
**.net.dp.packetSize = 500B
**.net.cache.typename = "NeighborCache"
**.net.cache.signalingTime = 5s
**.mobility.typename = "StationaryMobility"
**.nodeA.mobility.initialX = 100m
**.nodeA.mobility.initialY = 100m
**.nodeB.mobility.initialX = 130m
**.nodeB.mobility.initialY = 100m


