[General]
seed-set = ${0}
ned-path = /home/geo/inet4/src/inet
num-rngs = 3
sim-time-limit = 24h
**.cmdenv-log-level = debug
**.mobility.rng-0 = 1
**.wlan[*].mac.rng-0 = 2
**.sentMessage:vector.vector-recording = false
**.sentMessage:histogram.scalar-recording = false
**.receivedMessage:vector.vector-recording = false
**.receivedMessage:histogram.scalar-recording = false
**.infectionTime:vector.vector-recording = false
**.infectionTime:histogram.scalar-recording = false

# channel physical parameters
**.wlan[*].typename = "AckingWirelessInterface"
**.wlan[*].bitrate = 2Mbps
**.wlan[*].mac.headerLength = 23B
**.wlan[*].radio.typename = "UnitDiskRadio"
**.wlan[*].radio.transmitter.headerLength = 96b
**.wlan[*].radio.transmitter.communicationRange = 100m
**.wlan[*].radio.transmitter.interferenceRange = 0m
**.wlan[*].radio.transmitter.detectionRange = 0m
**.wlan[*].radio.receiver.ignoreInterference = true

# General mobility configurations
**.constraintAreaMinX = 0m
**.constraintAreaMinY = 0m
**.constraintAreaMinZ = 0m
**.constraintAreaMaxX = 400m
**.constraintAreaMaxY = 400m
**.constraintAreaMaxZ = 0m

**.mobility.initFromDisplayString = false
**.mobility.typename = "StationaryMobility"
**.updateInterval = 1s

#App settings
**.app.typename = "BroadcastInfectionApp"
**.app.sentInterval = 60s
**.app.recoveryInterval = 600s
**.app.payload = 512B
**.app.initialInfectionProbability = 0.9
**.app.infectionDegree = 10
**.app.statusReportInterval = 60s
**.app.recoveryProbability = 0.1
**.app.infectionProbability = 0.5

#Network settings
**.net.dp.typename = "HelloProtocol"
**.net.dp.maximumBcastDelay = 5s
**.net.dp.discoveryTime = 30s
**.net.dp.maxAttemptNumber = 3
**.net.dp.packetSize = 50B
**.net.cache.typename = "NeighborCache"
**.net.cache.signalingTime = 600s
**.net.np.typename = "ProbabilisticBroadcast"

[Config BroadcastInfectionAppTest]
description = "A simple test with two nodes"
network = HelloTest
**.hostNumber = 2
**.constraintAreaMaxX = 200m
**.constraintAreaMaxY = 200m
**.node[0].mobility.initialX = 100m
**.node[0].mobility.initialY = 100m
**.node[1].mobility.initialX = 150m
**.node[1].mobility.initialY = 100m
**.app.onlyBroadcast = false

[Config IEEE80211Radio]
description = "A square grid of wireless nodes"
network = RadioTest
**.hostNumber = 9
**.wlan[*].agent.typename = ""
**.wlan[*].radio.typename = "Ieee80211ScalarRadio"
**.wlan[*].typename = "Ieee80211Interface"
**.wlan[*].mgmt.typename = "Ieee80211MgmtAdhoc"
**.wlan[*].bitrate = 2Mbps
**.wlan[*].mac.dcf.channelAccess.cwMin = 7
**.wlan[*].radio.transmitter.power = 2mW
**.wlan[*].radio.receiver.sensitivity = -85dBm
**.wlan[*].radio.receiver.snirThreshold = 4dB
**.node[0].mobility.initialX = 100m
**.node[0].mobility.initialY = 100m
**.node[1].mobility.initialX = 200m
**.node[1].mobility.initialY = 100m
**.node[2].mobility.initialX = 300m
**.node[2].mobility.initialY = 100m
**.node[3].mobility.initialX = 100m
**.node[3].mobility.initialY = 200m
**.node[4].mobility.initialX = 200m
**.node[4].mobility.initialY = 200m
**.node[5].mobility.initialX = 300m
**.node[5].mobility.initialY = 200m
**.node[6].mobility.initialX = 100m
**.node[6].mobility.initialY = 300m
**.node[7].mobility.initialX = 200m
**.node[7].mobility.initialY = 300m
**.node[8].mobility.initialX = 300m
**.node[8].mobility.initialY = 300m